<routes>
	<vType id="average_car" vClass="passenger" accel="3" decel="4.5" minGap="2.5" maxSpeed="45" />
            
    <route id="W1_HN" edges="we1 we2 we3 we4 hwn" />
    <route id="N1_HN" edges="int1ns1 we2 we3 we4 hwn" />
    <route id="S1_HN" edges="int1sn1 we2 we3 we4 hwn" />
    <route id="N2_HN" edges="int2ns1 we3 we4 hwn" />
    <route id="S2_HN" edges="int2sn1 we3 we4 hwn" />
    <route id="W1_HS" edges="we1 we2 we3 se1 hws" />
    <route id="N1_HS" edges="int1ns1 we2 we3 se1 hws" />
    <route id="S1_HS" edges="int1sn1 we2 we3 se1 hws" />
    <route id="N2_HS" edges="int2ns1 we3 se1 hws" />
    <route id="S2_HS" edges="int2sn1 we3 se1 hws" />
    <route id="W1_N2" edges="we1 we2 int2sn2" />
    <route id="N1_N2" edges="int1ns1 we2 int2sn2" />
    <route id="S1_N2" edges="int1sn1 we2 int2sn2" />
    <route id="S2_N2" edges="int2sn1 int2sn2" />
    <route id="HN_N2" edges="-hwn ew1 ew2 int2sn2" />
    <route id="HS_N2" edges="-hws nw1 ew2 int2sn2" />
    <route id="W1_S2" edges="we1 we2 int2ns2" />
    <route id="N1_S2" edges="int1ns1 we2 int2ns2" />
    <route id="S1_S2" edges="int1sn1 we2 int2ns2" />
    <route id="N2_S2" edges="int2ns1 int2ns2" />
    <route id="HN_S2" edges="-hwn ew1 ew2 int2ns2" />
    <route id="HS_S2" edges="-hws nw1 ew2 int2ns2" />
    <route id="W1_N1" edges="we1 int1sn2" />
    <route id="S1_N1" edges="int1sn1 int1sn2" />
    <route id="N2_N1" edges="int2ns1 ew3 int1sn2" />
    <route id="S2_N1" edges="int2sn1 ew3 int1sn2" />
    <route id="HN_N1" edges="-hwn ew1 ew2 ew3 int1sn2" />
    <route id="HS_N1" edges="-hws nw1 ew2 ew3 int1sn2" />
    <route id="W1_S1" edges="we1 int1ns2" />
    <route id="N1_S1" edges="int1ns1 int1ns2" />
    <route id="N2_S1" edges="int2ns1 ew3 int1ns2" />
    <route id="S2_S1" edges="int2sn1 ew3 int1ns2" />
    <route id="HN_S1" edges="-hwn ew1 ew2 ew3 int1ns2" />
    <route id="HS_S1" edges="-hws nw1 ew2 ew3 int1ns2" />
    <route id="N1_W1" edges="int1ns1 ew4" />
    <route id="S1_W1" edges="int1sn1 ew4" />
    <route id="N2_W1" edges="int2ns1 ew3 ew4" />
    <route id="S2_W1" edges="int2sn1 ew3 ew4" />
    <route id="HN_W1" edges="-hwn ew1 ew2 ew3 ew4" />
    <route id="HS_W1" edges="-hws nw1 ew2 ew3 ew4" />
    <vehicle id="S1_N1_0" type="average_car" route="S1_N1" depart="0" departLane="random" />
    <vehicle id="S1_S2_1" type="average_car" route="S1_S2" depart="1" departLane="random" />
    <vehicle id="W1_HS_2" type="average_car" route="W1_HS" depart="1" departLane="random" />
    <vehicle id="N2_S2_3" type="average_car" route="N2_S2" depart="3" departLane="random" />
    <vehicle id="W1_HN_4" type="average_car" route="W1_HN" depart="3" departLane="random" />
    <vehicle id="W1_S1_5" type="average_car" route="W1_S1" depart="8" departLane="random" />
    <vehicle id="W1_S1_6" type="average_car" route="W1_S1" depart="11" departLane="random" />
    <vehicle id="S2_N2_7" type="average_car" route="S2_N2" depart="11" departLane="random" />
    <vehicle id="W1_HN_8" type="average_car" route="W1_HN" depart="14" departLane="random" />
    <vehicle id="W1_S1_9" type="average_car" route="W1_S1" depart="15" departLane="random" />
    <vehicle id="S1_HN_10" type="average_car" route="S1_HN" depart="15" departLane="random" />
    <vehicle id="HN_W1_11" type="average_car" route="N2_W1" depart="18" departLane="random" />
    <vehicle id="S2_N2_12" type="average_car" route="S2_N2" depart="18" departLane="random" />
    <vehicle id="W1_HS_13" type="average_car" route="W1_HS" depart="21" departLane="random" />
    <vehicle id="S2_S1_14" type="average_car" route="S2_S1" depart="23" departLane="random" />
    <vehicle id="W1_HN_15" type="average_car" route="W1_HN" depart="23" departLane="random" />
    <vehicle id="HN_S1_16" type="average_car" route="HN_S1" depart="28" departLane="random" />
    <vehicle id="HS_S1_17" type="average_car" route="HS_S1" depart="31" departLane="random" />
    <vehicle id="N1_S1_18" type="average_car" route="N1_S1" depart="32" departLane="random" />
    <vehicle id="S2_HN_19" type="average_car" route="S2_HN" depart="36" departLane="random" />
    <vehicle id="S1_N1_20" type="average_car" route="S1_N1" depart="39" departLane="random" />
    <vehicle id="N2_HN_21" type="average_car" route="N2_HN" depart="47" departLane="random" />
    <vehicle id="N1_S1_22" type="average_car" route="N1_S1" depart="50" departLane="random" />
    <vehicle id="S2_S1_23" type="average_car" route="S2_S1" depart="51" departLane="random" />
    <vehicle id="W1_N1_24" type="average_car" route="W1_N1" depart="53" departLane="random" />
    <vehicle id="HN_N1_25" type="average_car" route="HN_N1" depart="58" departLane="random" />
    <vehicle id="N1_S1_26" type="average_car" route="N1_S1" depart="60" departLane="random" />
    <vehicle id="HS_N2_27" type="average_car" route="HS_N2" depart="60" departLane="random" />
    <vehicle id="S2_N2_28" type="average_car" route="S2_N2" depart="65" departLane="random" />
    <vehicle id="S1_S2_29" type="average_car" route="S1_S2" depart="65" departLane="random" />
    <vehicle id="N2_W1_30" type="average_car" route="N2_W1" depart="66" departLane="random" />
    <vehicle id="S2_S1_31" type="average_car" route="S2_S1" depart="69" departLane="random" />
    <vehicle id="N1_HS_32" type="average_car" route="N1_HS" depart="69" departLane="random" />
    <vehicle id="N1_HS_33" type="average_car" route="N1_HS" depart="77" departLane="random" />
    <vehicle id="S2_S1_34" type="average_car" route="S2_S1" depart="78" departLane="random" />
    <vehicle id="N1_HS_35" type="average_car" route="N1_HS" depart="80" departLane="random" />
    <vehicle id="S2_N2_36" type="average_car" route="S2_N2" depart="82" departLane="random" />
    <vehicle id="N1_W1_37" type="average_car" route="N1_W1" depart="83" departLane="random" />
    <vehicle id="S1_S2_38" type="average_car" route="S1_S2" depart="87" departLane="random" />
    <vehicle id="W1_N1_39" type="average_car" route="W1_N1" depart="92" departLane="random" />
    <vehicle id="W1_N2_40" type="average_car" route="W1_N2" depart="94" departLane="random" />
    <vehicle id="N1_N2_41" type="average_car" route="N1_N2" depart="97" departLane="random" />
    <vehicle id="S1_W1_42" type="average_car" route="N1_W1" depart="98" departLane="random" />
    <vehicle id="W1_N1_43" type="average_car" route="W1_N1" depart="100" departLane="random" />
    <vehicle id="S2_N2_44" type="average_car" route="S2_N2" depart="101" departLane="random" />
    <vehicle id="N2_W1_45" type="average_car" route="N2_W1" depart="104" departLane="random" />
    <vehicle id="N2_W1_46" type="average_car" route="N2_W1" depart="107" departLane="random" />
    <vehicle id="HN_W1_47" type="average_car" route="N2_W1" depart="109" departLane="random" />
    <vehicle id="HN_N2_48" type="average_car" route="HN_N2" depart="109" departLane="random" />
    <vehicle id="S1_N1_49" type="average_car" route="S1_N1" depart="111" departLane="random" />
    <vehicle id="W1_S1_50" type="average_car" route="W1_S1" depart="112" departLane="random" />
    <vehicle id="HN_S1_51" type="average_car" route="HN_S1" depart="115" departLane="random" />
    <vehicle id="N1_HN_52" type="average_car" route="N1_HN" depart="125" departLane="random" />
    <vehicle id="N2_S2_53" type="average_car" route="N2_S2" depart="127" departLane="random" />
    <vehicle id="N1_W1_54" type="average_car" route="N1_W1" depart="128" departLane="random" />
    <vehicle id="S2_N2_55" type="average_car" route="S2_N2" depart="130" departLane="random" />
    <vehicle id="S1_W1_56" type="average_car" route="N1_W1" depart="132" departLane="random" />
    <vehicle id="HN_W1_57" type="average_car" route="N2_W1" depart="134" departLane="random" />
    <vehicle id="W1_HS_58" type="average_car" route="W1_HS" depart="136" departLane="random" />
    <vehicle id="N1_S2_59" type="average_car" route="N1_S2" depart="140" departLane="random" />
    <vehicle id="S2_S1_60" type="average_car" route="S2_S1" depart="142" departLane="random" />
    <vehicle id="HS_N2_61" type="average_car" route="HS_N2" depart="146" departLane="random" />
    <vehicle id="N2_HN_62" type="average_car" route="N2_HN" depart="147" departLane="random" />
    <vehicle id="N1_HS_63" type="average_car" route="N1_HS" depart="152" departLane="random" />
    <vehicle id="N2_S1_64" type="average_car" route="N2_S1" depart="153" departLane="random" />
    <vehicle id="HN_S1_65" type="average_car" route="HN_S1" depart="164" departLane="random" />
    <vehicle id="N2_HS_66" type="average_car" route="N2_HS" depart="166" departLane="random" />
    <vehicle id="S2_HN_67" type="average_car" route="S2_HN" depart="167" departLane="random" />
    <vehicle id="W1_S2_68" type="average_car" route="W1_S2" depart="172" departLane="random" />
    <vehicle id="S2_HS_69" type="average_car" route="S2_HS" depart="175" departLane="random" />
    <vehicle id="S1_N1_70" type="average_car" route="S1_N1" depart="179" departLane="random" />
    <vehicle id="W1_HS_71" type="average_car" route="W1_HS" depart="181" departLane="random" />
    <vehicle id="N1_S1_72" type="average_car" route="N1_S1" depart="185" departLane="random" />
    <vehicle id="S1_HS_73" type="average_car" route="S1_HS" depart="186" departLane="random" />
    <vehicle id="S2_W1_74" type="average_car" route="N2_W1" depart="189" departLane="random" />
    <vehicle id="N2_HS_75" type="average_car" route="N2_HS" depart="189" departLane="random" />
    <vehicle id="N2_W1_76" type="average_car" route="N2_W1" depart="190" departLane="random" />
    <vehicle id="S1_N1_77" type="average_car" route="S1_N1" depart="190" departLane="random" />
    <vehicle id="N2_W1_78" type="average_car" route="N2_W1" depart="196" departLane="random" />
    <vehicle id="HS_W1_79" type="average_car" route="N2_W1" depart="200" departLane="random" />
    <vehicle id="W1_S1_80" type="average_car" route="W1_S1" depart="200" departLane="random" />
    <vehicle id="N2_W1_81" type="average_car" route="N2_W1" depart="204" departLane="random" />
    <vehicle id="N2_N1_82" type="average_car" route="N2_N1" depart="204" departLane="random" />
    <vehicle id="N1_W1_83" type="average_car" route="N1_W1" depart="205" departLane="random" />
    <vehicle id="W1_HS_84" type="average_car" route="W1_HS" depart="206" departLane="random" />
    <vehicle id="S2_HS_85" type="average_car" route="S2_HS" depart="217" departLane="random" />
    <vehicle id="W1_HS_86" type="average_car" route="W1_HS" depart="219" departLane="random" />
    <vehicle id="N2_W1_87" type="average_car" route="N2_W1" depart="220" departLane="random" />
    <vehicle id="W1_S1_88" type="average_car" route="W1_S1" depart="220" departLane="random" />
    <vehicle id="N1_W1_89" type="average_car" route="N1_W1" depart="224" departLane="random" />
    <vehicle id="HN_S2_90" type="average_car" route="HN_S2" depart="224" departLane="random" />
    <vehicle id="S2_N2_91" type="average_car" route="S2_N2" depart="226" departLane="random" />
    <vehicle id="N2_W1_92" type="average_car" route="N2_W1" depart="232" departLane="random" />
    <vehicle id="HN_N1_93" type="average_car" route="HN_N1" depart="232" departLane="random" />
    <vehicle id="HS_N2_94" type="average_car" route="HS_N2" depart="235" departLane="random" />
    <vehicle id="S1_W1_95" type="average_car" route="N1_W1" depart="239" departLane="random" />
    <vehicle id="HN_W1_96" type="average_car" route="N2_W1" depart="244" departLane="random" />
    <vehicle id="HN_W1_97" type="average_car" route="N2_W1" depart="245" departLane="random" />
    <vehicle id="W1_S1_98" type="average_car" route="W1_S1" depart="246" departLane="random" />
    <vehicle id="HS_W1_99" type="average_car" route="N2_W1" depart="253" departLane="random" />
    <vehicle id="S2_N2_100" type="average_car" route="S2_N2" depart="255" departLane="random" />
    <vehicle id="N2_S1_101" type="average_car" route="N2_S1" depart="257" departLane="random" />
    <vehicle id="S1_S2_102" type="average_car" route="S1_S2" depart="261" departLane="random" />
    <vehicle id="S1_N1_103" type="average_car" route="S1_N1" depart="263" departLane="random" />
    <vehicle id="S1_N1_104" type="average_car" route="S1_N1" depart="265" departLane="random" />
    <vehicle id="W1_S1_105" type="average_car" route="W1_S1" depart="267" departLane="random" />
    <vehicle id="W1_S2_106" type="average_car" route="W1_S2" depart="267" departLane="random" />
    <vehicle id="S1_N1_107" type="average_car" route="S1_N1" depart="268" departLane="random" />
    <vehicle id="N1_W1_108" type="average_car" route="N1_W1" depart="271" departLane="random" />
    <vehicle id="N2_W1_109" type="average_car" route="N2_W1" depart="277" departLane="random" />
    <vehicle id="HN_W1_110" type="average_car" route="N2_W1" depart="278" departLane="random" />
    <vehicle id="N2_S2_111" type="average_car" route="N2_S2" depart="280" departLane="random" />
    <vehicle id="W1_HN_112" type="average_car" route="W1_HN" depart="281" departLane="random" />
    <vehicle id="W1_S1_113" type="average_car" route="W1_S1" depart="282" departLane="random" />
    <vehicle id="S1_N1_114" type="average_car" route="S1_N1" depart="283" departLane="random" />
    <vehicle id="N2_W1_115" type="average_car" route="N2_W1" depart="285" departLane="random" />
    <vehicle id="W1_N1_116" type="average_car" route="W1_N1" depart="285" departLane="random" />
    <vehicle id="N2_HS_117" type="average_car" route="N2_HS" depart="290" departLane="random" />
    <vehicle id="W1_HS_118" type="average_car" route="W1_HS" depart="292" departLane="random" />
    <vehicle id="W1_N2_119" type="average_car" route="W1_N2" depart="293" departLane="random" />
    <vehicle id="HS_S2_120" type="average_car" route="HS_S2" depart="294" departLane="random" />
    <vehicle id="HN_S2_121" type="average_car" route="HN_S2" depart="295" departLane="random" />
    <vehicle id="S1_W1_122" type="average_car" route="N1_W1" depart="301" departLane="random" />
    <vehicle id="W1_HS_123" type="average_car" route="W1_HS" depart="301" departLane="random" />
    <vehicle id="N2_HN_124" type="average_car" route="N2_HN" depart="306" departLane="random" />
    <vehicle id="W1_S1_125" type="average_car" route="W1_S1" depart="307" departLane="random" />
    <vehicle id="S2_N2_126" type="average_car" route="S2_N2" depart="307" departLane="random" />
    <vehicle id="N1_S1_127" type="average_car" route="N1_S1" depart="309" departLane="random" />
    <vehicle id="S1_HN_128" type="average_car" route="S1_HN" depart="311" departLane="random" />
    <vehicle id="N2_S2_129" type="average_car" route="N2_S2" depart="313" departLane="random" />
    <vehicle id="S2_HS_130" type="average_car" route="S2_HS" depart="317" departLane="random" />
    <vehicle id="W1_HN_131" type="average_car" route="W1_HN" depart="319" departLane="random" />
    <vehicle id="W1_HN_132" type="average_car" route="W1_HN" depart="321" departLane="random" />
    <vehicle id="HN_W1_133" type="average_car" route="N2_W1" depart="323" departLane="random" />
    <vehicle id="N2_HN_134" type="average_car" route="N2_HN" depart="326" departLane="random" />
    <vehicle id="W1_S1_135" type="average_car" route="W1_S1" depart="329" departLane="random" />
    <vehicle id="W1_HS_136" type="average_car" route="W1_HS" depart="331" departLane="random" />
    <vehicle id="S2_HN_137" type="average_car" route="S2_HN" depart="333" departLane="random" />
    <vehicle id="HN_W1_138" type="average_car" route="N2_W1" depart="336" departLane="random" />
    <vehicle id="HN_N2_139" type="average_car" route="HN_N2" depart="336" departLane="random" />
    <vehicle id="S2_S1_140" type="average_car" route="S2_S1" depart="339" departLane="random" />
    <vehicle id="N2_W1_141" type="average_car" route="N2_W1" depart="340" departLane="random" />
    <vehicle id="N1_W1_142" type="average_car" route="N1_W1" depart="341" departLane="random" />
    <vehicle id="HN_N2_143" type="average_car" route="HN_N2" depart="341" departLane="random" />
    <vehicle id="N2_HN_144" type="average_car" route="N2_HN" depart="342" departLane="random" />
    <vehicle id="N1_S1_145" type="average_car" route="N1_S1" depart="343" departLane="random" />
    <vehicle id="W1_N2_146" type="average_car" route="W1_N2" depart="343" departLane="random" />
    <vehicle id="S2_N2_147" type="average_car" route="S2_N2" depart="345" departLane="random" />
    <vehicle id="S2_N2_148" type="average_car" route="S2_N2" depart="347" departLane="random" />
    <vehicle id="N1_S1_149" type="average_car" route="N1_S1" depart="349" departLane="random" />
    <vehicle id="W1_N1_150" type="average_car" route="W1_N1" depart="351" departLane="random" />
    <vehicle id="HN_N2_151" type="average_car" route="HN_N2" depart="354" departLane="random" />
    <vehicle id="N1_N2_152" type="average_car" route="N1_N2" depart="355" departLane="random" />
    <vehicle id="HN_N2_153" type="average_car" route="HN_N2" depart="358" departLane="random" />
    <vehicle id="HN_S2_154" type="average_car" route="HN_S2" depart="358" departLane="random" />
    <vehicle id="HS_S1_155" type="average_car" route="HS_S1" depart="361" departLane="random" />
    <vehicle id="N2_S2_156" type="average_car" route="N2_S2" depart="368" departLane="random" />
    <vehicle id="S1_HS_157" type="average_car" route="S1_HS" depart="370" departLane="random" />
    <vehicle id="N1_S1_158" type="average_car" route="N1_S1" depart="371" departLane="random" />
    <vehicle id="S2_W1_159" type="average_car" route="N2_W1" depart="372" departLane="random" />
    <vehicle id="N1_W1_160" type="average_car" route="N1_W1" depart="373" departLane="random" />
    <vehicle id="W1_N1_161" type="average_car" route="W1_N1" depart="376" departLane="random" />
    <vehicle id="HN_W1_162" type="average_car" route="N2_W1" depart="381" departLane="random" />
    <vehicle id="HS_N1_163" type="average_car" route="HS_N1" depart="385" departLane="random" />
    <vehicle id="S2_N2_164" type="average_car" route="S2_N2" depart="391" departLane="random" />
    <vehicle id="W1_S1_165" type="average_car" route="W1_S1" depart="395" departLane="random" />
    <vehicle id="W1_HN_166" type="average_car" route="W1_HN" depart="396" departLane="random" />
    <vehicle id="S1_N1_167" type="average_car" route="S1_N1" depart="397" departLane="random" />
    <vehicle id="S2_N2_168" type="average_car" route="S2_N2" depart="399" departLane="random" />
    <vehicle id="HN_W1_169" type="average_car" route="N2_W1" depart="402" departLane="random" />
    <vehicle id="W1_HS_170" type="average_car" route="W1_HS" depart="405" departLane="random" />
    <vehicle id="HN_W1_171" type="average_car" route="N2_W1" depart="406" departLane="random" />
    <vehicle id="S1_N1_172" type="average_car" route="S1_N1" depart="407" departLane="random" />
    <vehicle id="N1_N2_173" type="average_car" route="N1_N2" depart="410" departLane="random" />
    <vehicle id="N1_S1_174" type="average_car" route="N1_S1" depart="411" departLane="random" />
    <vehicle id="N1_W1_175" type="average_car" route="N1_W1" depart="412" departLane="random" />
    <vehicle id="N1_S1_176" type="average_car" route="N1_S1" depart="413" departLane="random" />
    <vehicle id="S2_N2_177" type="average_car" route="S2_N2" depart="413" departLane="random" />
    <vehicle id="S1_N1_178" type="average_car" route="S1_N1" depart="416" departLane="random" />
    <vehicle id="HN_N2_179" type="average_car" route="HN_N2" depart="417" departLane="random" />
    <vehicle id="W1_S2_180" type="average_car" route="W1_S2" depart="418" departLane="random" />
    <vehicle id="N1_W1_181" type="average_car" route="N1_W1" depart="419" departLane="random" />
    <vehicle id="N2_W1_182" type="average_car" route="N2_W1" depart="420" departLane="random" />
    <vehicle id="S2_N2_183" type="average_car" route="S2_N2" depart="420" departLane="random" />
    <vehicle id="S1_N2_184" type="average_car" route="S1_N2" depart="422" departLane="random" />
    <vehicle id="N1_W1_185" type="average_car" route="N1_W1" depart="425" departLane="random" />
    <vehicle id="S2_N1_186" type="average_car" route="S2_N1" depart="425" departLane="random" />
    <vehicle id="HN_S2_187" type="average_car" route="HN_S2" depart="433" departLane="random" />
    <vehicle id="N1_S1_188" type="average_car" route="N1_S1" depart="437" departLane="random" />
    <vehicle id="N1_S1_189" type="average_car" route="N1_S1" depart="445" departLane="random" />
    <vehicle id="HS_N1_190" type="average_car" route="HS_N1" depart="446" departLane="random" />
    <vehicle id="N1_S1_191" type="average_car" route="N1_S1" depart="456" departLane="random" />
    <vehicle id="HN_W1_192" type="average_car" route="N2_W1" depart="460" departLane="random" />
    <vehicle id="N1_W1_193" type="average_car" route="N1_W1" depart="462" departLane="random" />
    <vehicle id="HS_S2_194" type="average_car" route="HS_S2" depart="463" departLane="random" />
    <vehicle id="N1_S1_195" type="average_car" route="N1_S1" depart="465" departLane="random" />
    <vehicle id="N1_HS_196" type="average_car" route="N1_HS" depart="466" departLane="random" />
    <vehicle id="N1_S1_197" type="average_car" route="N1_S1" depart="472" departLane="random" />
    <vehicle id="N2_S1_198" type="average_car" route="N2_S1" depart="475" departLane="random" />
    <vehicle id="N1_W1_199" type="average_car" route="N1_W1" depart="476" departLane="random" />
    <vehicle id="N1_N2_200" type="average_car" route="N1_N2" depart="476" departLane="random" />
    <vehicle id="S2_HS_201" type="average_car" route="S2_HS" depart="477" departLane="random" />
    <vehicle id="N1_S1_202" type="average_car" route="N1_S1" depart="479" departLane="random" />
    <vehicle id="HN_S1_203" type="average_car" route="HN_S1" depart="485" departLane="random" />
    <vehicle id="N1_S1_204" type="average_car" route="N1_S1" depart="489" departLane="random" />
    <vehicle id="S1_N1_205" type="average_car" route="S1_N1" depart="493" departLane="random" />
    <vehicle id="N2_S1_206" type="average_car" route="N2_S1" depart="494" departLane="random" />
    <vehicle id="HN_N2_207" type="average_car" route="HN_N2" depart="494" departLane="random" />
    <vehicle id="S2_HS_208" type="average_car" route="S2_HS" depart="494" departLane="random" />
    <vehicle id="HN_N1_209" type="average_car" route="HN_N1" depart="499" departLane="random" />
    <vehicle id="N1_S1_210" type="average_car" route="N1_S1" depart="499" departLane="random" />
    <vehicle id="N1_S2_211" type="average_car" route="N1_S2" depart="500" departLane="random" />
    <vehicle id="W1_HN_212" type="average_car" route="W1_HN" depart="502" departLane="random" />
    <vehicle id="N2_S2_213" type="average_car" route="N2_S2" depart="507" departLane="random" />
    <vehicle id="HS_S2_214" type="average_car" route="HS_S2" depart="509" departLane="random" />
    <vehicle id="W1_HN_215" type="average_car" route="W1_HN" depart="517" departLane="random" />
    <vehicle id="N1_W1_216" type="average_car" route="N1_W1" depart="520" departLane="random" />
    <vehicle id="S1_N1_217" type="average_car" route="S1_N1" depart="520" departLane="random" />
    <vehicle id="S1_S2_218" type="average_car" route="S1_S2" depart="521" departLane="random" />
    <vehicle id="S2_N2_219" type="average_car" route="S2_N2" depart="522" departLane="random" />
    <vehicle id="S1_HS_220" type="average_car" route="S1_HS" depart="527" departLane="random" />
    <vehicle id="HN_N2_221" type="average_car" route="HN_N2" depart="532" departLane="random" />
    <vehicle id="S1_W1_222" type="average_car" route="N1_W1" depart="547" departLane="random" />
    <vehicle id="HN_N2_223" type="average_car" route="HN_N2" depart="547" departLane="random" />
    <vehicle id="S1_HS_224" type="average_car" route="S1_HS" depart="547" departLane="random" />
    <vehicle id="S2_N2_225" type="average_car" route="S2_N2" depart="551" departLane="random" />
    <vehicle id="N1_N2_226" type="average_car" route="N1_N2" depart="553" departLane="random" />
    <vehicle id="HN_N1_227" type="average_car" route="HN_N1" depart="557" departLane="random" />
    <vehicle id="N1_S1_228" type="average_car" route="N1_S1" depart="562" departLane="random" />
    <vehicle id="N1_W1_229" type="average_car" route="N1_W1" depart="565" departLane="random" />
    <vehicle id="W1_S1_230" type="average_car" route="W1_S1" depart="566" departLane="random" />
    <vehicle id="S2_N2_231" type="average_car" route="S2_N2" depart="568" departLane="random" />
    <vehicle id="N2_N1_232" type="average_car" route="N2_N1" depart="569" departLane="random" />
    <vehicle id="S1_S2_233" type="average_car" route="S1_S2" depart="569" departLane="random" />
    <vehicle id="N1_S2_234" type="average_car" route="N1_S2" depart="571" departLane="random" />
    <vehicle id="N1_S1_235" type="average_car" route="N1_S1" depart="573" departLane="random" />
    <vehicle id="N2_W1_236" type="average_car" route="N2_W1" depart="577" departLane="random" />
    <vehicle id="N2_S2_237" type="average_car" route="N2_S2" depart="577" departLane="random" />
    <vehicle id="S2_W1_238" type="average_car" route="N2_W1" depart="578" departLane="random" />
    <vehicle id="N1_S2_239" type="average_car" route="N1_S2" depart="585" departLane="random" />
    <vehicle id="HS_N1_240" type="average_car" route="HS_N1" depart="590" departLane="random" />
    <vehicle id="N1_HS_241" type="average_car" route="N1_HS" depart="590" departLane="random" />
    <vehicle id="S2_N2_242" type="average_car" route="S2_N2" depart="595" departLane="random" />
    <vehicle id="N2_HN_243" type="average_car" route="N2_HN" depart="598" departLane="random" />
    <vehicle id="HN_S1_244" type="average_car" route="HN_S1" depart="600" departLane="random" />
    <vehicle id="N1_W1_245" type="average_car" route="N1_W1" depart="601" departLane="random" />
    <vehicle id="N1_W1_246" type="average_car" route="N1_W1" depart="602" departLane="random" />
    <vehicle id="HS_S1_247" type="average_car" route="HS_S1" depart="602" departLane="random" />
    <vehicle id="HN_N2_248" type="average_car" route="HN_N2" depart="602" departLane="random" />
    <vehicle id="HS_W1_249" type="average_car" route="N2_W1" depart="603" departLane="random" />
    <vehicle id="N2_HS_250" type="average_car" route="N2_HS" depart="604" departLane="random" />
    <vehicle id="N1_S1_251" type="average_car" route="N1_S1" depart="606" departLane="random" />
    <vehicle id="HN_W1_252" type="average_car" route="N2_W1" depart="607" departLane="random" />
    <vehicle id="W1_HS_253" type="average_car" route="W1_HS" depart="611" departLane="random" />
    <vehicle id="N2_N1_254" type="average_car" route="N2_N1" depart="612" departLane="random" />
    <vehicle id="S2_S1_255" type="average_car" route="S2_S1" depart="612" departLane="random" />
    <vehicle id="W1_HN_256" type="average_car" route="W1_HN" depart="614" departLane="random" />
    <vehicle id="S1_HN_257" type="average_car" route="S1_HN" depart="616" departLane="random" />
    <vehicle id="HN_N1_258" type="average_car" route="HN_N1" depart="617" departLane="random" />
    <vehicle id="S1_HN_259" type="average_car" route="S1_HN" depart="617" departLane="random" />
    <vehicle id="W1_N1_260" type="average_car" route="W1_N1" depart="620" departLane="random" />
    <vehicle id="N2_S2_261" type="average_car" route="N2_S2" depart="623" departLane="random" />
    <vehicle id="N2_S2_262" type="average_car" route="N2_S2" depart="626" departLane="random" />
    <vehicle id="N1_W1_263" type="average_car" route="N1_W1" depart="627" departLane="random" />
    <vehicle id="HN_N2_264" type="average_car" route="HN_N2" depart="627" departLane="random" />
    <vehicle id="N2_S2_265" type="average_car" route="N2_S2" depart="637" departLane="random" />
    <vehicle id="N2_N1_266" type="average_car" route="N2_N1" depart="641" departLane="random" />
    <vehicle id="S1_S2_267" type="average_car" route="S1_S2" depart="644" departLane="random" />
    <vehicle id="HN_W1_268" type="average_car" route="N2_W1" depart="647" departLane="random" />
    <vehicle id="S1_N1_269" type="average_car" route="S1_N1" depart="647" departLane="random" />
    <vehicle id="N2_W1_270" type="average_car" route="N2_W1" depart="649" departLane="random" />
    <vehicle id="N2_S1_271" type="average_car" route="N2_S1" depart="649" departLane="random" />
    <vehicle id="HN_W1_272" type="average_car" route="N2_W1" depart="650" departLane="random" />
    <vehicle id="N1_W1_273" type="average_car" route="N1_W1" depart="651" departLane="random" />
    <vehicle id="S1_N1_274" type="average_car" route="S1_N1" depart="654" departLane="random" />
    <vehicle id="HN_N2_275" type="average_car" route="HN_N2" depart="657" departLane="random" />
    <vehicle id="S2_N2_276" type="average_car" route="S2_N2" depart="660" departLane="random" />
    <vehicle id="N1_W1_277" type="average_car" route="N1_W1" depart="661" departLane="random" />
    <vehicle id="HS_N1_278" type="average_car" route="HS_N1" depart="663" departLane="random" />
    <vehicle id="N2_S2_279" type="average_car" route="N2_S2" depart="663" departLane="random" />
    <vehicle id="HN_W1_280" type="average_car" route="N2_W1" depart="664" departLane="random" />
    <vehicle id="S1_N1_281" type="average_car" route="S1_N1" depart="672" departLane="random" />
    <vehicle id="N2_N1_282" type="average_car" route="N2_N1" depart="675" departLane="random" />
    <vehicle id="S1_N1_283" type="average_car" route="S1_N1" depart="678" departLane="random" />
    <vehicle id="N1_S1_284" type="average_car" route="N1_S1" depart="683" departLane="random" />
    <vehicle id="W1_HS_285" type="average_car" route="W1_HS" depart="684" departLane="random" />
    <vehicle id="HS_N1_286" type="average_car" route="HS_N1" depart="686" departLane="random" />
    <vehicle id="N1_S1_287" type="average_car" route="N1_S1" depart="687" departLane="random" />