<?xml version="1.0" encoding="UTF-8"?>

<!-- generated on 2024-02-03 15:23:22 by Eclipse SUMO sumo Version 1.19.0
-->

<configuration xmlns:xsi="http://www.w3.org/2001/XMLSchema-instance" xsi:noNamespaceSchemaLocation="http://sumo.dlr.de/xsd/sumoConfiguration.xsd">

    <input>
        <net-file value="network.net.xml"/>
        <route-files value="routes.rou.xml"/>
        <gui-settings-file value="gui.view.xml"/>
        <junction-taz value="true"/>
    </input>

</configuration>
